   28

 O    -1.686414     0.888374    -1.077044
 C    -2.218966     0.090468    -0.174248
 C    -1.606480    -0.936042     0.438121
 C    -0.229972    -1.216949     0.098573
 N     0.450513    -0.560103    -0.763103
 C     1.809745    -1.104645    -0.775450
 C     2.836912    -0.092308    -0.323025
 C     4.081684    -0.037669    -0.938117
 C     5.051800     0.849760    -0.491150
 C     4.780978     1.692895     0.576041
 C     3.536977     1.646333     1.192542
 C     2.570464     0.758726     0.745142
 H     1.596854     0.734039     1.219073
 H     3.318013     2.307033     2.020533
 H     5.532940     2.388376     0.923199
 H     6.015512     0.885911    -0.981050
 H     4.292061    -0.689404    -1.777741
 H     2.059670    -1.424352    -1.787291
 C     1.699288    -2.328907     0.173517
 H     1.767696    -3.277799    -0.355286
 H     2.422794    -2.302781     0.984508
 O     0.381201    -2.227696     0.738727
 H    -2.115340    -1.542138     1.167056
 C    -3.657503     0.456954     0.122961
 F    -3.742415     1.706221     0.578217
 F    -4.403450     0.374576    -0.977780
 F    -4.190756    -0.349881     1.039986
 H    -0.744322     0.588703    -1.220545
