   37

 O    -1.862822    -0.880643     1.143805
 C    -2.428677    -0.144561     0.195099
 C    -1.772463     0.866355    -0.424625
 C    -0.412926     1.169133    -0.066638
 N     0.271978     0.569162     0.837498
 C     1.627196     1.113440     0.815328
 C     2.649056     0.105882     0.334976
 C     3.955801     0.167240     0.807222
 C     4.922851    -0.706189     0.329657
 C     4.588942    -1.654143    -0.627091
 C     3.285262    -1.724184    -1.099275
 C     2.320203    -0.849649    -0.620495
 H     1.300650    -0.915811    -0.978436
 H     3.017433    -2.466019    -1.839782
 H     5.339070    -2.339360    -0.998097
 H     5.934313    -0.650731     0.709409
 H     4.216746     0.900914     1.561077
 H     1.910004     1.441014     1.816206
 C     1.489733     2.330969    -0.135310
 H     1.482713     3.277930     0.403794
 H     2.246755     2.353739    -0.915174
 O     0.206021     2.155826    -0.749571
 H    -2.238671     1.458560    -1.191615
 C    -3.852511    -0.560870    -0.099471
 C    -4.485617     0.292791    -1.193693
 H    -3.938619     0.208444    -2.133435
 H    -4.526303     1.344345    -0.907395
 H    -5.506761    -0.047422    -1.367845
 C    -3.838282    -2.031081    -0.540762
 H    -3.400901    -2.662932     0.229803
 H    -3.261851    -2.154117    -1.458850
 H    -4.859436    -2.364985    -0.729689
 C    -4.667573    -0.422711     1.194015
 H    -4.241408    -1.033373     1.987641
 H    -4.689224     0.615356     1.528866
 H    -5.693585    -0.747042     1.014900
 H    -0.932639    -0.553567     1.287023
