   21

 O    -1.901618    -1.313001     0.364447
 C    -2.168807    -0.071262    -0.018235
 C    -1.212937     0.868966    -0.198306
 C     0.170313     0.541188     0.022471
 N     0.612939    -0.598809     0.406209
 C     2.075928    -0.531167     0.415628
 C     2.660672    -1.412719    -0.678024
 H     2.346135    -2.445991    -0.540690
 H     3.750671    -1.374254    -0.664393
 H     2.311591    -1.074618    -1.654923
 H     2.447209    -0.860229     1.386646
 C     2.351934     0.971223     0.201215
 H     2.662618     1.479342     1.113893
 H     3.074867     1.166573    -0.588985
 O     1.084999     1.511219    -0.201833
 H    -1.469434     1.868122    -0.507369
 C    -3.622953     0.179221    -0.226908
 H    -4.162848    -0.023168     0.698478
 H    -3.807223     1.203308    -0.538735
 H    -4.004118    -0.506766    -0.983867
 H    -0.916960    -1.396066     0.481352
