   31

 O    -2.238231    -1.783580     0.933506
 C    -2.958269    -0.991286     0.148539
 C    -2.554012     0.239910    -0.264263
 C    -1.253457     0.697100     0.171963
 N    -0.455156     0.059016     0.951496
 C     0.789932     0.811206     1.050441
 C     1.950924     0.113746     0.373045
 C     3.251373     0.402615     0.776214
 C     4.336619    -0.171497     0.131167
 C     4.130751    -1.047123    -0.926424
 C     2.836718    -1.343908    -1.329759
 C     1.751702    -0.766868    -0.683607
 H     0.742666    -1.011452    -0.989086
 H     2.669626    -2.031486    -2.148147
 H     4.974618    -1.500531    -1.428553
 H     5.341936     0.058527     0.457982
 H     3.414390     1.078648     1.607829
 H     1.047057     0.966526     2.098879
 C     0.424404     2.158039     0.378467
 H     0.254494     2.950415     1.107223
 H     1.152518     2.482659    -0.360496
 O    -0.815190     1.891207    -0.288653
 C    -3.396499     1.122259    -1.152082
 H    -4.379553     1.309173    -0.719366
 H    -2.911593     2.084076    -1.292134
 H    -3.545296     0.683812    -2.140013
 C    -4.263805    -1.608212    -0.228075
 H    -4.831616    -0.992400    -0.917392
 H    -4.078596    -2.582792    -0.680422
 H    -4.853316    -1.778115     0.673941
 H    -1.384910    -1.314439     1.154417
