   39

 O    -0.146892    -1.534499    -0.196865
 C     0.422020    -0.355356    -0.111928
 N    -0.208399     0.780209    -0.095950
 C    -1.565073     0.743529    -0.179346
 N    -2.326021    -0.291816    -0.259265
 C    -3.706852     0.166412    -0.385259
 H    -4.050534    -0.037137    -1.406533
 C    -4.662256    -0.531818     0.578397
 C    -6.072822     0.024298     0.406270
 H    -6.433820    -0.167022    -0.607184
 H    -6.764218    -0.452427     1.100772
 H    -6.115838     1.100558     0.580867
 C    -4.644047    -2.040312     0.368183
 H    -3.645785    -2.447452     0.518230
 H    -5.326425    -2.534217     1.060404
 H    -4.962312    -2.285919    -0.647909
 H    -4.311975    -0.312400     1.592590
 C    -3.579940     1.684746    -0.139000
 H    -3.940969     1.962666     0.854009
 H    -4.072042     2.300559    -0.887266
 O    -2.172644     1.944252    -0.189138
 C     1.895457    -0.374426    -0.031077
 C     2.586670    -1.579551    -0.053659
 C     3.970000    -1.572985     0.021799
 C     4.683205    -0.383374     0.120439
 C     3.985295     0.834849     0.144032
 C     2.602013     0.822469     0.067791
 H     2.044550     1.749459     0.084060
 C     4.731830     2.134730     0.250433
 H     5.422862     2.263036    -0.584994
 H     4.044699     2.977960     0.255656
 H     5.327670     2.174512     1.164399
 C     6.182268    -0.396639     0.201021
 H     6.530148     0.075306     1.122015
 H     6.568139    -1.413385     0.171721
 H     6.624852     0.161565    -0.626347
 H     4.510354    -2.511159     0.003697
 H     2.041280    -2.508956    -0.130085
 H    -1.148390    -1.379696    -0.252610
