   35

 O    -1.258391    -1.330847     0.296424
 C    -1.743438    -0.139327     0.032101
 N    -1.040815     0.940088    -0.098965
 C     0.311609     0.832488     0.053723
 N     0.998182    -0.225078     0.304694
 C     2.401019     0.163020     0.432629
 H     2.691242     0.076302     1.486425
 C     3.343575    -0.713414    -0.387189
 C     3.219677    -2.176458     0.018133
 H     2.203228    -2.540026    -0.121332
 H     3.484370    -2.302380     1.070802
 H     3.893143    -2.798347    -0.572100
 C     4.780065    -0.224374    -0.226191
 H     5.463839    -0.830219    -0.820288
 H     5.090418    -0.299666     0.818800
 H     4.899521     0.814331    -0.538399
 H     3.045878    -0.611087    -1.436195
 C     2.382260     1.640044    -0.014583
 H     2.799295     1.762789    -1.016833
 H     2.882342     2.319954     0.670137
 O     0.993234     1.985562    -0.066301
 C    -3.248565    -0.106710    -0.117384
 C    -3.867823    -0.606849     1.194818
 H    -3.594504     0.044291     2.026321
 H    -3.539138    -1.619333     1.422600
 H    -4.954542    -0.604007     1.103320
 C    -3.633375    -1.054685    -1.261434
 H    -4.717727    -1.056101    -1.377779
 H    -3.302860    -2.071416    -1.056219
 H    -3.190436    -0.726985    -2.202990
 C    -3.735667     1.305133    -0.421336
 H    -4.821642     1.294008    -0.523611
 H    -3.298996     1.681019    -1.345130
 H    -3.464296     1.994512     0.376465
 H    -0.253602    -1.237534     0.381724
