   36

 O    -1.814067    -1.108297     0.835906
 C    -2.430401    -0.198663     0.117552
 N    -1.879424     0.864841    -0.375251
 C    -0.553709     1.062783    -0.122564
 N     0.243141     0.312761     0.554757
 C     1.542003     0.976606     0.620700
 C     2.710741     0.076734     0.308215
 C     3.944843     0.311489     0.903874
 C     5.045955    -0.469193     0.579722
 C     4.918742    -1.498573    -0.341439
 C     3.687067    -1.742456    -0.935039
 C     2.589521    -0.957834    -0.613635
 H     1.626099    -1.153190    -1.066804
 H     3.580457    -2.549205    -1.647859
 H     5.773360    -2.112533    -0.591336
 H     6.000169    -0.277678     1.051905
 H     4.042958     1.107312     1.632923
 H     1.677312     1.379079     1.628358
 C     1.376930     2.124747    -0.404966
 H     1.714566     3.090902    -0.040276
 H     1.873654     1.890880    -1.347472
 O    -0.034035     2.189115    -0.641270
 C    -3.897999    -0.485996    -0.110616
 C    -4.543746     0.608620    -0.951963
 H    -4.465308     1.578046    -0.462673
 H    -4.063924     0.690375    -1.925847
 H    -5.598448     0.371428    -1.097386
 C    -4.012502    -1.838483    -0.827068
 H    -3.565035    -2.635134    -0.235337
 H    -5.065622    -2.071602    -0.987817
 H    -3.519005    -1.806069    -1.799470
 C    -4.583460    -0.570792     1.260113
 H    -4.500110     0.376047     1.795486
 H    -4.142890    -1.356615     1.871163
 H    -5.642405    -0.789751     1.118907
 H    -0.850773    -0.819278     0.939521
