   46

 O    -0.321419    -1.144452    -0.453780
 C     0.225383     0.024787    -0.222792
 N    -0.412936     1.156771    -0.192434
 C    -1.750616     1.127688    -0.425367
 N    -2.488739     0.099613    -0.669164
 C    -3.844845     0.567803    -0.934723
 C    -4.916713    -0.194558    -0.197220
 C    -6.185146    -0.317932    -0.753054
 C    -7.201044    -0.961382    -0.059728
 C    -6.952915    -1.494285     1.196929
 C    -5.686213    -1.380317     1.754656
 C    -4.673964    -0.732212     1.062453
 H    -3.683122    -0.651676     1.490644
 H    -5.485157    -1.801214     2.730755
 H    -7.740672    -2.001712     1.737060
 H    -8.183091    -1.052293    -0.504116
 H    -6.377228     0.087003    -1.739816
 H    -4.040488     0.485357    -2.007523
 C    -3.768264     2.055220    -0.510215
 H    -4.203676     2.740151    -1.232600
 H    -4.221661     2.213229     0.469161
 O    -2.365424     2.324030    -0.408217
 C     1.682195     0.002378     0.016600
 C     2.364942    -1.208071    -0.030180
 C     3.736744    -1.221720     0.194895
 C     4.411341    -0.031244     0.479079
 C     3.710636     1.179292     0.508094
 C     2.341355     1.197768     0.280690
 H     1.766710     2.109861     0.301976
 O     4.458854     2.276023     0.765629
 C     3.787652     3.515394     0.840012
 H     4.547481     4.257073     1.067061
 H     3.035898     3.508153     1.632042
 H     3.306933     3.762361    -0.109176
 O     5.740005    -0.056964     0.757184
 C     6.563696     0.193491    -0.372985
 H     6.353042     1.180568    -0.788983
 H     6.407074    -0.572962    -1.135058
 H     7.592121     0.155968    -0.023972
 O     4.507277    -2.332486     0.159326
 C     3.863624    -3.561803    -0.092721
 H     4.640076    -4.320386    -0.066661
 H     3.115925    -3.779491     0.673188
 H     3.384308    -3.564070    -1.074480
 H     1.819045    -2.112578    -0.243701
 H    -1.312183    -0.990457    -0.609753
