   24

 O     2.167200     1.471988     0.135201
 C     2.588945     0.232630    -0.079044
 C     1.757457    -0.833465    -0.127371
 C     0.342948    -0.652768     0.062066
 N    -0.242393     0.467628     0.272028
 C    -1.669959     0.205567     0.451085
 C    -2.536686     1.095218    -0.426659
 C    -4.022655     0.847876    -0.199422
 H    -4.632461     1.495957    -0.826950
 H    -4.295080    -0.183931    -0.429648
 H    -4.293046     1.037627     0.840613
 H    -2.288513     2.135961    -0.214570
 H    -2.271603     0.912281    -1.471112
 H    -1.930628     0.391469     1.498234
 C    -1.792719    -1.295576     0.115433
 H    -2.306398    -1.882071     0.873015
 H    -2.271234    -1.456429    -0.853459
 O    -0.437048    -1.756503     0.026420
 H     2.137469    -1.825164    -0.305615
 C     4.064941     0.137449    -0.261034
 H     4.565651     0.527269     0.625626
 H     4.376985    -0.888731    -0.432931
 H     4.367498     0.757073    -1.105635
 H     1.178518     1.447959     0.245371
