   36

 O     0.819514     0.928819    -0.820184
 C     0.826351     0.854284     0.522207
 N    -0.229225     0.698946     1.192800
 C    -1.443827     0.591894     0.529106
 N    -2.050719    -0.477100     0.241727
 C    -3.299833    -0.082199    -0.416648
 H    -3.217141    -0.329264    -1.482037
 C    -4.516228    -0.815380     0.140421
 C    -5.785015    -0.337405    -0.559891
 H    -5.942661     0.735967    -0.441110
 H    -6.662987    -0.847901    -0.163768
 H    -5.729493    -0.552663    -1.629971
 C    -4.351139    -2.322873    -0.000863
 H    -4.283232    -2.597602    -1.056589
 H    -5.206521    -2.847580     0.426440
 H    -3.443778    -2.660785     0.495276
 H    -4.579662    -0.566241     1.205164
 C    -3.350056     1.446266    -0.211599
 H    -4.061535     1.726634     0.569426
 H    -3.560847     2.014454    -1.114223
 O    -2.033018     1.781126     0.242813
 C     2.165128     1.002744     1.200996
 C     3.245573     0.203278     0.515732
 C     3.235920    -1.188972     0.593898
 C     4.197789    -1.936635    -0.064821
 C     5.180960    -1.303345    -0.816929
 C     5.196106     0.079271    -0.905639
 C     4.230613     0.828375    -0.241964
 H     4.250905     1.910222    -0.303080
 H     5.959510     0.578846    -1.486565
 H     5.931572    -1.888509    -1.330385
 H     4.181115    -3.015756     0.005555
 H     2.464097    -1.682054     1.172798
 H     2.422932     2.064370     1.188160
 H     2.036017     0.702221     2.237922
 H     1.720496     0.888257    -1.162905
