   37

 O    -0.250174    -1.447971    -0.227896
 C     0.293618    -0.258390    -0.120420
 N    -0.362851     0.863063    -0.078408
 C    -1.717563     0.796700    -0.157955
 N    -2.455163    -0.254405    -0.256577
 C    -3.846368     0.173957    -0.370196
 C    -4.783462    -0.567117     0.579337
 C    -6.206698    -0.039535     0.422568
 H    -6.565661    -0.215744    -0.594345
 H    -6.273609     1.031207     0.621865
 H    -6.885512    -0.547568     1.107223
 C    -4.731481    -2.069709     0.335179
 H    -3.723701    -2.457067     0.473568
 H    -5.400336    -2.594622     1.017717
 H    -5.046998    -2.299621    -0.685437
 H    -4.435722    -0.362652     1.597518
 H    -4.187800    -0.014711    -1.395156
 C    -3.754073     1.688929    -0.090720
 H    -4.264409     2.309430    -0.822733
 H    -4.116752     1.935826     0.909925
 O    -2.353674     1.982841    -0.141349
 C     1.762955    -0.246904    -0.045645
 C     2.446665     0.957114     0.071527
 C     3.830026     0.985323     0.141876
 C     4.543369    -0.211572     0.094188
 C     3.862676    -1.425630    -0.023365
 C     2.487381    -1.440909    -0.092297
 H     1.957743    -2.378332    -0.183301
 H     4.440639    -2.338334    -0.058245
 O     5.890085    -0.294019     0.154969
 C     6.623387     0.905615     0.273752
 H     6.362999     1.437135     1.191697
 H     7.670122     0.619143     0.306044
 H     6.451068     1.559100    -0.584264
 H     4.337943     1.933276     0.232376
 H     1.877608     1.875378     0.106994
 H    -1.255720    -1.313171    -0.276722
