73

 C     0.896061     2.431893     0.348501
 C     2.134771     3.112267     0.559647
 C    -0.217783     3.165766    -0.058468
 C     2.229227     4.503657     0.367477
 C    -0.115924     4.561923    -0.264451
 H    -1.180038     2.672663    -0.234048
 C     1.098438     5.225131    -0.053908
 H     3.174231     5.025694     0.556797
 H    -0.995486     5.123979    -0.598924
 H     1.169943     6.306241    -0.213801
 C     3.223204     2.260340     1.030439
 N     2.870667     0.981433     1.119361
 C     3.056343    -1.152745     1.677200
 C     3.730957    -2.338888     2.090475
 N     1.695300    -1.201380     1.408350
 C     3.018244    -3.519300     2.208466
 H     4.802764    -2.279705     2.291525
 C     1.020203    -2.365464     1.524382
 C     1.630084    -3.549522     1.918925
 H     3.531688    -4.435776     2.519242
 H    -0.048926    -2.307613     1.288957
 H     1.047226    -4.470151     2.005919
 N     1.286688     0.321063    -1.116570
 C     0.248916     0.157141    -1.928476
 C     2.547217     0.313901    -1.873178
 H     3.142166     1.204186    -1.614574
 C     2.008955     0.424009    -3.327864
 H     2.489552    -0.280867    -4.022048
 H     2.087285     1.453582    -3.718562
 O     0.606477     0.082943    -3.236762
 C    -1.472422    -0.010799    -0.391817
 O    -0.735113     0.112740     0.659468
 N     3.710368     0.018017     1.540991
 C     4.590954     2.734917     1.406764
 H     5.081745     3.225115     0.544890
 H     4.536636     3.485125     2.217183
 H     5.197965     1.880150     1.738084
Co     1.086268     0.558463     0.703818
 N    -1.049555     0.025538    -1.661041
 C    -2.920236    -0.226119    -0.163933
 C    -3.417754    -0.249945     1.153118
 C    -3.778147    -0.404602    -1.265047
 C    -4.789652    -0.445880     1.371009
 H    -2.718221    -0.096302     1.975907
 C    -5.147285    -0.612013    -1.046307
 H    -3.338035    -0.382771    -2.263139
 C    -5.667077    -0.636081     0.272505
 O    -6.982033    -0.887926     0.529708
 O    -5.381154    -0.470075     2.597336
 O    -6.061438    -0.819276    -2.040449
 C    -4.545971    -0.303291     3.734535
 H    -4.035679     0.679396     3.723832
 H    -5.210768    -0.361315     4.608948
 H    -3.783265    -1.103314     3.797820
 C    -7.920832     0.102307     0.093100
 H    -7.898435     0.221609    -1.003825
 H    -8.911147    -0.259402     0.408931
 H    -7.713739     1.074256     0.579843
 C    -5.589291    -0.828308    -3.382582
 H    -5.136065     0.142696    -3.658937
 H    -4.844977    -1.631342    -3.540788
 H    -6.472017    -1.015476    -4.011493
 C     3.364154    -0.937366    -1.600806
 C     2.745784    -2.200761    -1.584915
 C     4.746022    -0.848254    -1.372855
 C     3.500814    -3.356745    -1.355478
 H     1.663691    -2.278102    -1.734169
 C     5.504752    -2.004445    -1.144316
 H     5.227189     0.135810    -1.353569
 C     4.883504    -3.260767    -1.137013
 H     3.006154    -4.333036    -1.331512
 H     6.580574    -1.921559    -0.957100
 H     5.473179    -4.163937    -0.947309
