58

 C     2.265863    -0.867865     0.449881
 C     2.103471    -2.257794     0.158213
 C     3.538564    -0.305109     0.355130
 C     3.209334    -3.046583    -0.212915
 C     4.645777    -1.096696    -0.029618
 H     3.692536     0.759140     0.563416
 C     4.481565    -2.457658    -0.313121
 H     3.082928    -4.117150    -0.411267
 H     5.637263    -0.636442    -0.112535
 H     5.342667    -3.066039    -0.609837
 C     0.744116    -2.761043     0.330652
 N    -0.111683    -1.807876     0.684003
 C    -2.022082    -0.944056     1.396320
 C    -3.418045    -0.926651     1.686472
 N    -1.264652     0.195018     1.628154
 C    -3.992147     0.226263     2.193307
 H    -3.998123    -1.830529     1.488250
 C    -1.845581     1.309811     2.118879
 C    -3.200298     1.380665     2.419607
 H    -5.065278     0.247871     2.412805
 H    -1.165720     2.157101     2.266352
 H    -3.631973     2.300923     2.821860
 N     0.438795     0.509851    -0.799526
 C     1.011841     1.617712    -1.247003
 C    -0.261005    -0.186744    -1.891519
 H     0.040986    -1.245131    -1.910596
 C     0.308625     0.559678    -3.125405
 H    -0.456053     0.826765    -3.869060
 H     1.128593    -0.002752    -3.605314
 O     0.859863     1.788057    -2.588608
 C     1.694628     2.620816    -0.505268
 C     1.731787     2.530261     0.895217
 O     1.245741     1.546516     1.583647
 C     2.365659     3.632087     1.715874
 H     3.454457     3.674189     1.527612
 H     1.951710     4.621106     1.452610
 H     2.197714     3.432086     2.784307
 N    -1.419611    -2.043726     0.900974
 C     0.322300    -4.186283     0.160179
 H     0.527958    -4.532337    -0.870486
 H     0.888706    -4.847439     0.841874
 H    -0.753155    -4.277746     0.370189
Co     0.591896    -0.078959     0.943255
 C    -1.771428    -0.095447    -1.748832
 C    -2.378978     1.106384    -1.344677
 C    -2.577826    -1.208146    -2.036593
 C    -3.772518     1.197690    -1.244525
 H    -1.755011     1.967389    -1.083710
 C    -3.972934    -1.118712    -1.938416
 H    -2.107972    -2.156881    -2.318236
 C    -4.572970     0.085671    -1.545047
 H    -4.233294     2.134303    -0.914476
 H    -4.591393    -1.996175    -2.155275
 H    -5.662499     0.153232    -1.456655
 C     2.314341     3.793097    -1.235950
 H     1.767020     4.738134    -1.052468
 H     3.362475     3.958267    -0.926761
 H     2.307159     3.612442    -2.321075
