64

 C     1.540156     1.781330    -0.401822
 C     0.815605     2.995078    -0.612815
 C     2.875188     1.853867    -0.005563
 C     1.442757     4.243604    -0.438039
 C     3.499424     3.109286     0.181783
 H     3.449428     0.940218     0.178725
 C     2.787943     4.295445    -0.033257
 H     0.890159     5.171279    -0.626464
 H     4.546163     3.150130     0.504844
 H     3.276918     5.264756     0.111621
 C    -0.563496     2.811478    -1.055439
 N    -0.911540     1.530624    -1.125369
 C    -2.170864    -0.215465    -1.643753
 C    -3.366546    -0.893951    -2.022018
 N    -1.018907    -0.949472    -1.399796
 C    -3.359571    -2.273733    -2.130540
 H    -4.262733    -0.297159    -2.204951
 C    -1.036368    -2.294964    -1.504443
 C    -2.174698    -3.005908    -1.864911
 H    -4.276630    -2.801547    -2.414522
 H    -0.082765    -2.788974    -1.287250
 H    -2.145207    -4.095774    -1.944191
 N     0.156784     0.158525     1.087787
 C     0.973868    -0.495887     1.895986
 C    -0.925231     0.795455     1.857098
 H    -1.000369     1.858618     1.580216
 C    -0.379727     0.647847     3.302857
 H    -1.135838     0.301456     4.022227
 H     0.091532     1.578865     3.663200
 O     0.650519    -0.369143     3.208551
 C     2.077340    -1.313119     1.546027
 H     2.636247    -1.759100     2.366600
 C     2.406234    -1.566187     0.214830
 O     1.766661    -1.042747    -0.783106
 C     3.550238    -2.507012    -0.197959
 N    -2.134034     1.126203    -1.516911
 C    -1.507627     3.913394    -1.419600
 H    -1.668653     4.587802    -0.557311
 H    -1.093911     4.530027    -2.238857
 H    -2.469607     3.483287    -1.733602
Co     0.425311     0.260168    -0.737514
 C    -2.262558     0.113445     1.622701
 C    -2.352022    -1.290156     1.611654
 C    -3.424827     0.875758     1.428208
 C    -3.587455    -1.920378     1.422567
 H    -1.445215    -1.892369     1.730364
 C    -4.663246     0.247039     1.239522
 H    -3.355504     1.968796     1.403197
 C    -4.746957    -1.152090     1.238977
 H    -3.642299    -3.013515     1.401180
 H    -5.561765     0.851895     1.077781
 H    -5.712265    -1.644371     1.080009
 C     4.563767    -1.682605    -1.027583
 H     5.040297    -0.904116    -0.406034
 H     5.357733    -2.342194    -1.420689
 H     4.058288    -1.189484    -1.873394
 C     2.942905    -3.619433    -1.086082
 H     2.204991    -4.214924    -0.519248
 H     2.439246    -3.180285    -1.962231
 H     3.738178    -4.300070    -1.438200
 C     4.262292    -3.140378     1.009141
 H     3.569244    -3.747266     1.617155
 H     5.070740    -3.803582     0.654515
 H     4.717490    -2.373529     1.659510
