58

 C    -2.161592    -1.058739    -0.434288
 C    -1.837812    -2.450595    -0.404974
 C    -3.476243    -0.668118    -0.180436
 C    -2.830154    -3.412055    -0.133607
 C    -4.468656    -1.634994     0.104351
 H    -3.751486     0.391957    -0.182111
 C    -4.147345    -2.997179     0.128196
 H    -2.581519    -4.479575    -0.137669
 H    -5.494642    -1.311343     0.314865
 H    -4.920265    -3.741437     0.348018
 C    -0.446986    -2.759267    -0.723792
 N     0.283367    -1.668980    -0.932972
 C     2.046904    -0.483545    -1.554901
 C     3.412566    -0.259652    -1.898068
 N     1.164836     0.587322    -1.536480
 C     3.834980     1.022789    -2.202290
 H     4.091419    -1.115162    -1.899701
 C     1.598933     1.830300    -1.832383
 C     2.918485     2.104397    -2.170958
 H     4.884300     1.202654    -2.460781
 H     0.829395     2.609853    -1.790965
 H     3.229172     3.124844    -2.410069
 N    -0.416036     0.275069     0.963639
 C    -1.046699     1.243704     1.606607
 C     0.393135    -0.520327     1.902497
 H     0.171151    -1.590463     1.768918
 C    -0.160877    -0.017049     3.262472
 H     0.624295     0.202799     4.000250
 H    -0.901678    -0.715070     3.689968
 O    -0.843122     1.224156     2.948478
 C    -1.845132     2.275161     1.054272
 H    -2.304954     2.973546     1.752514
 C    -2.002386     2.417925    -0.323764
 O    -1.479237     1.611338    -1.192641
 C    -2.805195     3.552003    -0.937851
 H    -3.597169     3.079453    -1.550153
 H    -2.137965     4.052051    -1.665412
 N     1.591452    -1.714524    -1.247140
 C     0.128503    -4.135745    -0.835554
 H     0.023940    -4.679752     0.122251
 H    -0.408725    -4.724709    -1.601783
 H     1.192456    -4.067551    -1.104590
Co    -0.611621    -0.012554    -0.852291
 C     1.881763    -0.283712     1.710525
 C     2.376644     1.018305     1.516648
 C     2.780792    -1.361262     1.741133
 C     3.751134     1.239611     1.369769
 H     1.679186     1.860383     1.458272
 C     4.157381    -1.142081     1.595385
 H     2.397414    -2.380777     1.858479
 C     4.645046     0.159241     1.412057
 H     4.123323     2.255818     1.204760
 H     4.848519    -1.991482     1.610263
 H     5.719462     0.330412     1.286469
 C    -3.410215     4.571077     0.028940
 H    -2.629777     5.076349     0.624050
 H    -3.963244     5.345571    -0.529183
 H    -4.117150     4.093269     0.729267
