55

 C    -2.409377    -0.440563    -0.436410
 C    -2.366016    -1.871193    -0.427623
 C    -3.619330     0.199250    -0.170725
 C    -3.530392    -2.616939    -0.161936
 C    -4.783908    -0.554093     0.107391
 H    -3.677999     1.292807    -0.156912
 C    -4.738260    -1.952723     0.112398
 H    -3.502510    -3.712449    -0.179082
 H    -5.724293    -0.035918     0.328220
 H    -5.642030    -2.532815     0.327504
 C    -1.059615    -2.433656    -0.757478
 N    -0.136776    -1.497289    -0.948890
 C     1.827671    -0.686457    -1.562207
 C     3.209625    -0.735192    -1.907056
 N     1.176807     0.538580    -1.525159
 C     3.879580     0.441250    -2.196305
 H     3.703739    -1.709041    -1.922231
 C     1.849883     1.673458    -1.807254
 C     3.197386     1.683089    -2.147567
 H     4.943394     0.411561    -2.456356
 H     1.251911     2.590629    -1.753726
 H     3.705002     2.624166    -2.375015
 N    -0.442029     0.516335     0.976852
 C    -0.868940     1.581902     1.634496
 C     0.191762    -0.436726     1.903240
 H    -0.239755    -1.439022     1.756674
 C    -0.250057     0.148857     3.271432
 H     0.564410     0.200586     4.008427
 H    -1.112894    -0.394872     3.694010
 O    -0.674885     1.504039     2.975287
 C    -1.443959     2.758518     1.094593
 H    -1.756946     3.533430     1.795193
 C    -1.566791     2.945842    -0.282419
 O    -1.219158     2.063158    -1.163858
 C    -2.121686     4.232148    -0.848523
 H    -3.028925     4.012562    -1.439209
 H    -2.367712     4.957829    -0.058576
 H    -1.385951     4.679047    -1.540192
 N     1.133025    -1.806547    -1.271584
 C    -0.709459    -3.879357    -0.912655
 H     0.112473    -4.145413    -0.222633
 H    -1.573980    -4.532178    -0.722645
 H    -0.322754    -4.069291    -1.930201
Co    -0.686387     0.295213    -0.842747
 C     1.697699    -0.499092     1.710067
 C     2.440686     0.680049     1.522163
 C     2.365989    -1.733241     1.734848
 C     3.831759     0.625724     1.374811
 H     1.923691     1.643765     1.468470
 C     3.758670    -1.790275     1.588128
 H     1.788756    -2.657218     1.850214
 C     4.494259    -0.610364     1.410431
 H     4.397629     1.549037     1.214498
 H     4.268009    -2.759731     1.598430
 H     5.581254    -0.654649     1.284311
