54

 C     0.825642     1.055320    -1.200697
 C     1.019546     2.241343    -0.429363
 C     1.609458     0.815798    -2.328476
 C     2.043142     3.147352    -0.779649
 C     2.624379     1.734649    -2.671331
 H     1.463420    -0.080805    -2.937223
 C     2.848258     2.883631    -1.896306
 H     2.185673     4.064857    -0.197269
 H     3.250638     1.536927    -3.548788
 H     3.643937     3.583315    -2.173196
 C    -0.022567     2.466119     0.556981
 N    -0.872128     1.445031     0.579436
 C    -2.904038     0.691941     0.343544
 C    -4.311223     0.569116     0.546849
 N    -2.296178    -0.068239    -0.660151
 C    -5.048903    -0.267886    -0.271269
 H    -4.768559     1.163795     1.341402
 C    -3.037866    -0.884327    -1.447088
 C    -4.411039    -1.011416    -1.299655
 H    -6.131010    -0.355600    -0.124567
 H    -2.462850    -1.449699    -2.187497
 H    -4.975326    -1.678791    -1.956062
 N     1.091003    -0.673553     0.676953
 C     2.042400    -1.486754     0.228994
 C     1.493029    -0.190451     2.017226
 H     1.286555     0.887685     2.097210
 C     3.003723    -0.467432     1.992882
 H     3.415271    -0.825546     2.948543
 H     3.584403     0.399928     1.631955
 O     3.145372    -1.537264     1.017064
 C     1.981710    -2.304158    -0.920083
 H     2.844940    -2.930675    -1.148087
 C     0.822363    -2.369054    -1.694520
 O    -0.214221    -1.613535    -1.517219
 C     0.701516    -3.355782    -2.833020
 H     0.520241    -2.812086    -3.777357
 H     1.602168    -3.979656    -2.937942
 H    -0.173732    -4.006827    -2.660308
 C     0.727003    -0.944605     3.138888
 H     1.124025    -0.533122     4.089434
 C    -0.776878    -0.653571     3.078066
 H    -1.204619    -1.034286     2.131286
 H    -1.303151    -1.159179     3.906396
 H    -0.999985     0.423998     3.128179
 C     0.984037    -2.460672     3.118470
 H     0.466989    -2.944279     3.965214
 H     0.590786    -2.906194     2.187326
 H     2.055982    -2.712038     3.188134
 N    -2.140438     1.551307     1.039568
 C    -0.291920     3.757174     1.265481
 H     0.503428     3.974649     2.003270
 H    -0.310984     4.598770     0.549059
 H    -1.261690     3.698648     1.780988
Co    -0.385268    -0.122120    -0.364631
