61

 C     2.360445    -0.219184    -0.824311
 C     2.364717     0.938089    -1.663831
 C     3.552692    -0.612531    -0.215744
 C     3.551234     1.666027    -1.876089
 C     4.740801     0.127760    -0.420374
 H     3.578524    -1.487144     0.442838
 C     4.739033     1.260215    -1.243306
 H     3.552656     2.540312    -2.537122
 H     5.666202    -0.185936     0.076467
 H     5.661634     1.829920    -1.397837
 C     1.076195     1.253539    -2.272858
 N     0.110067     0.431591    -1.877227
 C    -1.907937    -0.479645    -1.833277
 C    -3.305704    -0.564182    -2.100095
 N    -1.295285    -1.477172    -1.089399
 C    -4.026820    -1.639715    -1.610591
 H    -3.770518     0.237104    -2.678626
 C    -2.017429    -2.515413    -0.619301
 C    -3.381478    -2.647506    -0.850337
 H    -5.102668    -1.706965    -1.806164
 H    -1.445525    -3.251736    -0.042693
 H    -3.930029    -3.507317    -0.456877
 N     0.397219    -0.018399     0.851867
 C     0.828261    -0.460599     2.023431
 C    -0.164069     1.330510     0.994193
 H     0.238979     1.987944     0.208952
 C     0.446454     1.757960     2.373202
 O     0.715715     0.451597     3.015152
 C     1.337550    -1.749634     2.319246
 H     1.659256    -1.940816     3.343636
 C     1.396362    -2.753456     1.352549
 O     1.049330    -2.586675     0.115209
 C     1.878884    -4.142924     1.698520
 H     2.767197    -4.386743     1.088867
 H     2.131475    -4.237468     2.765499
 H     1.097863    -4.879945     1.440881
 N    -1.166601     0.552976    -2.284628
 C     0.824673     2.373760    -3.231914
 H     1.025308     3.350007    -2.750133
 H     1.496389     2.301149    -4.106764
 H    -0.222644     2.342778    -3.565388
Co     0.600074    -0.970017    -0.717490
 C    -1.678644     1.320262     0.901075
 C    -2.430107     0.274368     1.465783
 C    -2.348786     2.368147     0.249061
 C    -3.828486     0.286103     1.394244
 H    -1.914559    -0.564438     1.943601
 C    -3.748013     2.382712     0.176374
 H    -1.767341     3.167242    -0.224202
 C    -4.491116     1.342670     0.752478
 H    -4.400960    -0.541144     1.825984
 H    -4.258152     3.200276    -0.344064
 H    -5.584339     1.346737     0.686765
 C    -0.475440     2.537875     3.296544
 H     0.035409     2.740281     4.252851
 H    -0.748125     3.499588     2.831005
 H    -1.400033     1.974104     3.493199
 C     1.803020     2.433277     2.155120
 H     2.423999     1.833123     1.467603
 H     1.659650     3.433953     1.711912
 H     2.332454     2.542328     3.116101
