72

 C    -1.621657    -0.520090     1.723050
 C    -2.956583    -0.896988     2.060342
 C    -0.548166    -0.955359     2.499194
 C    -3.186144    -1.757376     3.154903
 C    -0.794699    -1.814910     3.591201
 H     0.478456    -0.658413     2.267074
 C    -2.099950    -2.222188     3.909118
 H    -4.210643    -2.033880     3.429065
 H     0.051187    -2.175962     4.186997
 H    -2.271852    -2.892530     4.757775
 C    -3.969201    -0.168832     1.315665
 N    -3.405745     0.618068     0.405688
 C    -3.082583     2.612080    -0.415572
 C    -3.393157     3.894172    -0.960964
 N    -1.748619     2.302740    -0.128152
 C    -2.379798     4.811693    -1.170723
 H    -4.439638     4.116411    -1.183462
 C    -0.772123     3.216261    -0.349592
 C    -1.034440     4.478946    -0.857889
 H    -2.616905     5.799233    -1.581181
 H     0.240481     2.870367    -0.120704
 H    -0.217653     5.186277    -1.022814
 N    -1.563162    -1.327577    -0.711349
 C    -0.473144    -2.096206    -0.749121
 C    -2.715799    -2.124567    -1.178120
 H    -3.578480    -1.950866    -0.516295
 C    -2.171510    -3.554644    -1.017018
 H    -2.463031    -4.240998    -1.826543
 H    -2.432149    -3.995798    -0.038572
 O    -0.731256    -3.390696    -1.064761
 C     1.136428    -0.503816    -0.305511
 O     0.323560     0.480020    -0.116623
 C    -3.105602    -1.752671    -2.634547
 H    -3.944754    -2.430377    -2.893440
 C    -3.607671    -0.306732    -2.722032
 H    -2.800223     0.398766    -2.449908
 H    -3.923709    -0.067082    -3.752243
 H    -4.454137    -0.114041    -2.043628
 C    -1.961274    -1.989439    -3.633984
 H    -2.302966    -1.772145    -4.660701
 H    -1.111568    -1.318389    -3.415742
 H    -1.586923    -3.026965    -3.614171
 N    -4.024424     1.702936    -0.115412
 C    -5.421244    -0.083891     1.669216
 H    -5.919577    -1.059532     1.516234
 H    -5.548174     0.183827     2.734283
 H    -5.909123     0.678779     1.045018
Co    -1.558107     0.387595     0.071980
 N     0.802447    -1.776302    -0.555758
 C     2.583291    -0.192401    -0.220153
 C     2.995607     1.102318     0.148111
 C     3.528643    -1.195341    -0.504810
 C     4.363844     1.397477     0.235886
 H     2.232736     1.844877     0.382803
 C     4.896632    -0.897538    -0.430220
 H     3.156473    -2.181932    -0.784814
 C     5.329218     0.401166    -0.060217
 O     6.647282     0.746447    -0.024655
 O     4.869792     2.608901     0.598781
 O     5.892783    -1.788964    -0.712134
 C     3.945859     3.648932     0.885069
 H     3.292976     3.389906     1.741277
 H     4.551944     4.530431     1.140862
 H     3.311710     3.880598     0.007126
 C     7.453959     0.100740     0.968030
 H     7.487681    -0.991007     0.811006
 H     8.463654     0.525032     0.859801
 H     7.070767     0.321648     1.982333
 C     5.514265    -3.101744    -1.109964
 H     4.937059    -3.614367    -0.317147
 H     4.912810    -3.081813    -2.038228
 H     6.453680    -3.644170    -1.291596
