51

 C    -0.977116    -0.453422    -1.323147
 C    -1.191406    -1.840614    -1.060906
 C    -1.806376     0.229901    -2.211597
 C    -2.274442    -2.510490    -1.668951
 C    -2.881115    -0.454969    -2.817638
 H    -1.648113     1.289826    -2.429340
 C    -3.120519    -1.810209    -2.539761
 H    -2.433426    -3.578514    -1.480857
 H    -3.541457     0.086774    -3.504443
 H    -3.962238    -2.325240    -3.014708
 C    -0.118135    -2.459072    -0.302140
 N     0.779735    -1.550958     0.062566
 C     2.836223    -0.828344     0.019416
 C     4.253832    -0.834449     0.181364
 N     2.229884     0.270674    -0.595564
 C     5.000823     0.225409    -0.301568
 H     4.710823    -1.697429     0.671817
 C     2.980509     1.299923    -1.056243
 C     4.362738     1.320067    -0.942948
 H     6.090463     0.218183    -0.188411
 H     2.406821     2.120258    -1.499531
 H     4.934219     2.167603    -1.329958
 N    -1.047754     0.428018     1.082445
 C    -1.946011     1.407008     1.087784
 C    -1.405527    -0.529394     2.154374
 H    -1.275194    -1.558899     1.787669
 C    -2.885539    -0.184440     2.374146
 H    -3.209882    -0.233093     3.424324
 H    -3.560547    -0.784780     1.738163
 O    -2.978999     1.203027     1.944454
 C    -1.892009     2.606238     0.344973
 H    -2.712769     3.315672     0.458246
 C    -0.785722     2.909132    -0.450139
 O     0.199489     2.097039    -0.667444
 C    -0.664540     4.250910    -1.135344
 H    -0.594535     4.104170    -2.227987
 H    -1.516731     4.909882    -0.909649
 H     0.270725     4.742149    -0.813397
 C     0.963393    -0.337092     3.166027
 H     1.268333     0.432362     2.432803
 H     1.516216    -0.140919     4.100860
 H     1.285392    -1.314497     2.770169
 N     2.057486    -1.861939     0.384969
 C     0.115525    -3.930500    -0.155623
 H    -0.649465    -4.387271     0.500505
 H     0.047995    -4.435912    -1.136243
 H     1.113208    -4.102919     0.274054
Co     0.337119     0.272299    -0.185670
 C    -0.544831    -0.283552     3.411162
 H    -0.836137    -1.037674     4.167642
 H    -0.823811     0.704851     3.824937
