   56

 C     1.217383     1.670904    -0.707648
 C     0.771868     1.565122    -2.060384
 C     1.617637     2.904032    -0.192885
 C     0.703942     2.720289    -2.868207
 C     1.551308     4.047968    -1.015292
 H     1.961340     2.996751     0.841337
 C     1.089686     3.958950    -2.338757
 H     0.373521     2.641473    -3.910261
 H     1.853668     5.019075    -0.606888
 H     1.039572     4.858170    -2.961741
 C     0.580011     0.193316    -2.501647
 N     0.769176    -0.649282    -1.495219
 C     1.888571    -2.333162    -0.677191
 C     2.438988    -3.645073    -0.580162
 N     2.271669    -1.367271     0.254600
 C     3.368713    -3.923169     0.407002
 H     2.121118    -4.391700    -1.312055
 C     3.177851    -1.662053     1.216085
 C     3.761733    -2.915962     1.326436
 H     3.803629    -4.926257     0.476356
 H     3.389325    -0.843114     1.910897
 H     4.493441    -3.114719     2.113670
 C     0.914769     1.362732     2.813035
 O     1.528265     0.600607     1.964156
 N     1.051324    -1.966550    -1.667984
 C     0.412798    -0.266317    -3.915829
 H     1.061808     0.311984    -4.596186
 H     0.662254    -1.336194    -3.981064
 H    -0.631681    -0.125948    -4.254670
Co     0.966672     0.068497     0.242237
 C    -1.163510     1.463060     1.523796
 N    -0.798665     0.670187     0.521914
 O    -2.437597     1.915508     1.449891
 C    -1.954549     0.504745    -0.384909
 C    -2.987979     1.532151     0.155539
 C    -2.650565    -0.837159    -0.229597
 H    -1.641314     0.709622    -1.420778
 C    -4.328843     0.802266     0.339756
 H    -3.064106     2.453855    -0.444178
 C    -2.125657    -2.116712    -0.455659
 C    -3.971548    -0.664851     0.221736
 H    -4.783540     1.069762     1.309140
 H    -5.041635     1.103630    -0.450727
 C    -2.944237    -3.229376    -0.209594
 H    -1.103668    -2.252854    -0.826224
 C    -4.784849    -1.779527     0.467519
 C    -4.261333    -3.063505     0.252837
 H    -2.550652    -4.237036    -0.380412
 H    -5.813691    -1.652932     0.822590
 H    -4.885313    -3.943276     0.444166
 C     1.711150     1.702792     4.051725
 H     1.145901     2.345412     4.743772
 H     1.995288     0.770412     4.571079
 H     2.647692     2.211743     3.761922
 C    -0.379242     1.847995     2.634275
 H    -0.837549     2.507490     3.372395
