58

 C    -2.012618    -1.278181    -0.727297
 C    -1.171737    -2.029241    -1.606146
 C    -3.146185    -1.889857    -0.192403
 C    -1.480974    -3.365652    -1.923579
 C    -3.450166    -3.234223    -0.508820
 H    -3.802150    -1.343738     0.493611
 C    -2.620911    -3.968197    -1.365131
 H    -0.842566    -3.932369    -2.610906
 H    -4.336828    -3.705595    -0.069274
 H    -2.859217    -5.010256    -1.603249
 C    -0.046121    -1.278482    -2.155635
 N     0.017296    -0.041239    -1.679219
 C     0.701502     2.065151    -1.580513
 C     1.564161     3.172696    -1.832597
 N    -0.443986     2.253208    -0.820427
 C     1.238769     4.417331    -1.318765
 H     2.465109     3.004325    -2.427522
 C    -0.740836     3.475078    -0.328308
 C     0.059979     4.588735    -0.549438
 H     1.897031     5.272224    -1.508529
 H    -1.666544     3.522475     0.256807
 H    -0.216865     5.562255    -0.136637
 N    -0.537205    -0.142139     1.064741
 C    -1.183203    -0.240959     2.216091
 C     0.802495    -0.741691     1.197382
 H     1.003116    -1.395931     0.336400
 C     0.629661    -1.556625     2.489941
 H     1.501695    -1.528593     3.159246
 H     0.340971    -2.603701     2.291688
 O    -0.482687    -0.907239     3.169487
 C    -2.460074     0.282007     2.535002
 H    -2.841744     0.106917     3.541500
 C    -3.196565     1.020246     1.608733
 O    -2.811977     1.241513     0.390737
 C    -4.527324     1.632483     1.978593
 H    -5.314114     1.234502     1.313315
 H    -4.797102     1.429090     3.025942
 H    -4.488955     2.724364     1.817128
 N     0.980546     0.830666    -2.050920
 C     0.946099    -1.791572    -3.150714
 H     1.759693    -2.341609    -2.638202
 H     0.470221    -2.485176    -3.863427
 H     1.400352    -0.945945    -3.689075
Co    -1.333994     0.494229    -0.482315
 C     1.892567     0.356204     1.280766
 H     1.659711     1.112519     0.516673
 H     1.824023     0.849296     2.266863
 C     3.273708    -0.209264     1.043484
 C     3.708012    -0.441675    -0.278554
 C     4.121713    -0.567654     2.107768
 C     4.957843    -1.024853    -0.523833
 H     3.056335    -0.144249    -1.110667
 C     5.373606    -1.152013     1.862252
 H     3.805073    -0.374826     3.140072
 C     5.793407    -1.385510     0.545293
 H     5.285478    -1.193129    -1.555786
 H     6.023800    -1.420640     2.702033
 H     6.771208    -1.839753     0.352044
