63

 C     1.239346    -0.380414    -1.608154
 C     2.490812     0.275864    -1.813372
 C     0.905124    -1.512194    -2.350592
 C     3.413019    -0.253982    -2.740771
 C     1.837890    -2.028914    -3.275083
 H    -0.057074    -2.013899    -2.212704
 C     3.085068    -1.411511    -3.460398
 H     4.367828     0.255079    -2.915262
 H     1.584941    -2.931612    -3.842542
 H     3.798970    -1.827486    -4.179007
 C     2.589936     1.558310    -1.137279
 N     1.513650     1.774422    -0.388584
 C    -0.229147     2.997595     0.082614
 C    -0.991607     4.150330     0.433974
 N    -0.902207     1.817820    -0.248699
 C    -2.374469     4.086994     0.410507
 H    -0.451200     5.062863     0.697248
 C    -2.257717     1.775072    -0.261609
 C    -3.032835     2.882067     0.050986
 H    -2.962115     4.974198     0.670949
 H    -2.693651     0.803080    -0.511956
 H    -4.122509     2.804828     0.029439
 N     1.379121    -0.851746     0.909048
 C     1.095387    -2.150109     1.021158
 C     2.723953    -0.619600     1.476985
 H     3.297218     0.039368     0.806578
 C     3.299701    -2.046253     1.474723
 H     3.901782    -2.291080     2.362841
 H     3.874097    -2.267273     0.557891
 O     2.125349    -2.898981     1.481327
 C    -1.100424    -2.108838     0.352446
 O    -1.120599    -0.890320    -0.040838
 C    -2.428694    -2.857098     0.267307
 H    -2.323166    -3.603016    -0.542313
 H    -2.547905    -3.432242     1.201139
 C     2.639178     0.031069     2.883800
 H     3.689819     0.112853     3.230092
 C     2.044701     1.442397     2.807754
 H     1.002539     1.403669     2.440675
 H     2.028981     1.911266     3.807047
 H     2.608143     2.097872     2.124467
 C     1.860948    -0.832287     3.890404
 H     1.883093    -0.364211     4.889657
 H     0.802737    -0.921611     3.586676
 H     2.272965    -1.851343     3.984719
 N     1.114245     3.006955    -0.000269
 C     3.605596     2.622214    -1.414282
 H     4.580527     2.365743    -0.957340
 H     3.771410     2.731872    -2.500863
 H     3.255187     3.578136    -0.997340
Co     0.319948     0.330322    -0.127156
 N    -0.052585    -2.797009     0.798848
 C    -3.599491    -1.937065     0.010627
 C    -3.992006    -1.622387    -1.303306
 C    -4.264157    -1.310469     1.080610
 C    -5.020930    -0.701615    -1.544131
 H    -3.475774    -2.095046    -2.146661
 C    -5.293699    -0.389046     0.844962
 H    -3.963348    -1.539400     2.109461
 C    -5.675036    -0.080890    -0.469343
 H    -5.311035    -0.465891    -2.573557
 H    -5.798126     0.091535     1.690058
 H    -6.479190     0.638941    -0.655715
