48

 C     0.640349    -1.885092     0.192016
 C    -0.064851    -2.236710    -1.000015
 C     1.188504    -2.900533     0.975588
 C    -0.214800    -3.586342    -1.372944
 C     1.046705    -4.254266     0.592099
 H     1.749878    -2.659270     1.884729
 C     0.350350    -4.594802    -0.574007
 H    -0.778963    -3.851350    -2.274539
 H     1.494767    -5.040887     1.210287
 H     0.243466    -5.645380    -0.864408
 C    -0.633898    -1.103976    -1.725168
 N    -0.325253     0.061704    -1.169600
 C    -0.501520     2.237520    -0.787848
 C    -0.867667     3.588149    -1.066571
 N     0.135696     1.937619     0.407049
 C    -0.584685     4.574417    -0.136586
 H    -1.367718     3.804203    -2.013889
 C     0.402146     2.915413     1.299430
 C     0.063666     4.244992     1.081160
 H    -0.864625     5.613251    -0.343502
 H     0.900540     2.578826     2.215676
 H     0.294203     5.006609     1.830611
 N     2.376778    -0.036559    -0.294679
 C     3.443532    -0.268707     0.454624
 C     2.737315    -0.110773    -1.726629
 H     2.114671    -0.886085    -2.204518
 C     4.213381    -0.575568    -1.654411
 H     4.897547     0.064339    -2.234279
 H     4.346779    -1.628276    -1.957419
 O     4.580850    -0.465731    -0.256287
 C     3.526455    -0.320370     1.868918
 H     4.509143    -0.504757     2.304609
 C     2.407923    -0.139525     2.679640
 O     1.214106     0.064117     2.220287
 C     2.519998    -0.162104     4.186166
 H     1.876197    -0.962785     4.591484
 H     3.556482    -0.323195     4.519202
 H     2.148201     0.792338     4.599269
 N    -0.760324     1.242397    -1.661223
 C    -1.495573    -1.205417    -2.943609
 H    -0.927466    -1.648711    -3.783470
 H    -2.362889    -1.864139    -2.755536
 H    -1.845728    -0.203782    -3.231360
Co     0.663867     0.011853     0.432801
 C     2.544438     1.228601    -2.442832
 H     2.891623     1.146792    -3.488511
 H     1.481557     1.514473    -2.454358
 H     3.124619     2.021047    -1.938960
