62

 C    -0.647690     2.255289     0.372527
 C     0.415706     3.175965     0.625070
 C    -1.886262     2.748937    -0.036147
 C     0.216863     4.560750     0.465665
 C    -2.078958     4.139948    -0.207554
 H    -2.718387     2.067226    -0.241542
 C    -1.034486     5.038554     0.039385
 H     1.027659     5.264862     0.685368
 H    -3.053427     4.512785    -0.543673
 H    -1.190724     6.114317    -0.094541
 C     1.651736     2.562482     1.102074
 N     1.573842     1.237147     1.164561
 C     2.192500    -0.820684     1.698004
 C     3.093474    -1.848482     2.103544
 N     0.872989    -1.144558     1.416167
 C     2.635504    -3.150611     2.206363
 H     4.129730    -1.574453     2.312840
 C     0.447837    -2.421708     1.518804
 C     1.283914    -3.460420     1.909162
 H     3.323923    -3.946174     2.511957
 H    -0.609826    -2.577171     1.275888
 H     0.900464    -4.481153     1.986649
 N     0.245537     0.306794    -1.111419
 C    -0.699174    -0.018154    -1.979929
 C     1.521306     0.540410    -1.808773
 H     1.949941     1.502162    -1.487554
 C     1.034592     0.628807    -3.279912
 H     1.665920     0.068289    -3.984364
 H     0.924013     1.675042    -3.614826
 O    -0.280947     0.018021    -3.271450
 C    -2.027716    -0.417114    -1.707476
 H    -2.672029    -0.597612    -2.566799
 C    -2.488300    -0.599061    -0.399379
 O    -1.758842    -0.358264     0.647659
 N     2.592219     0.461842     1.581478
 C     2.883333     3.306443     1.511831
 H     3.272129     3.908139     0.668700
 H     2.660868     4.010148     2.335213
 H     3.652188     2.591523     1.838588
Co    -0.076212     0.457119     0.702107
 C    -3.866940    -1.087163    -0.114507
 C    -4.707274    -1.622163    -1.114071
 C    -4.348512    -1.012696     1.210089
 C    -5.996552    -2.063196    -0.796829
 H    -4.349179    -1.709933    -2.143824
 C    -5.638537    -1.453297     1.524748
 H    -3.689606    -0.599464     1.978347
 C    -6.467978    -1.979081     0.522718
 H    -6.635796    -2.479711    -1.582461
 H    -6.000236    -1.384874     2.556278
 H    -7.477798    -2.324820     0.768128
 C     2.522196    -0.573283    -1.548808
 C     2.110150    -1.917829    -1.555332
 C     3.873247    -0.271451    -1.315716
 C     3.038536    -2.944679    -1.346031
 H     1.052736    -2.160715    -1.702670
 C     4.804529    -1.297796    -1.107281
 H     4.193475     0.775475    -1.276242
 C     4.389047    -2.636552    -1.124868
 H     2.703340    -3.986794    -1.338887
 H     5.854086    -1.050101    -0.916255
 H     5.113913    -3.438819    -0.950598
